dataset/network_data/ieee_13node_DSS/master_islanded2.dss
Clear

new circuit.IEEE13busIslanded

! Line codes

Redirect IEEE13busLineCodes.dss

! Loads

New Load.671 Bus1=671.1.2.3  Phases=3 Conn=Delta Model=1 kV=4.16   kW=1155 kvar=660
New Load.634a Bus1=634.1     Phases=1 Conn=Wye  Model=1 kV=2.4  kW=160   kvar=110
New Load.634b Bus1=634.2     Phases=1 Conn=Wye  Model=1 kV=2.4  kW=120   kvar=90
New Load.634c Bus1=634.3     Phases=1 Conn=Wye  Model=1 kV=2.4  kW=120   kvar=90
New Load.645 Bus1=645.2       Phases=1 Conn=Wye  Model=1 kV=2.4      kW=170   kvar=125
New Load.646 Bus1=646.2.3    Phases=1 Conn=Delta Model=2 kV=4.16    kW=230   kvar=132
New Load.692 Bus1=692.3.1    Phases=1 Conn=Delta Model=5 kV=4.16    kW=170   kvar=151
New Load.675a Bus1=675.1    Phases=1 Conn=Wye  Model=1 kV=2.4  kW=485   kvar=190
New Load.675b Bus1=675.2    Phases=1 Conn=Wye  Model=1 kV=2.4  kW=68   kvar=60
New Load.675c Bus1=675.3    Phases=1 Conn=Wye  Model=1 kV=2.4  kW=290   kvar=212
New Load.611 Bus1=611.3      Phases=1 Conn=Wye  Model=5 kV=2.4  kW=170   kvar=80
New Load.652 Bus1=652.1      Phases=1 Conn=Wye  Model=2 kV=2.4  kW=128   kvar=86
New Load.670a Bus1=670.1    Phases=1 Conn=Wye  Model=1 kV=2.4  kW=17    kvar=10
New Load.670b Bus1=670.2    Phases=1 Conn=Wye  Model=1 kV=2.4  kW=66    kvar=38
New Load.670c Bus1=670.3    Phases=1 Conn=Wye  Model=1 kV=2.4  kW=117  kvar=68

! Lines

New Line.650632    Phases=3 Bus1=650.1.2.3   Bus2=632.1.2.3  LineCode=mtx601 Length=2000 units=ft
New Line.632670    Phases=3 Bus1=632.1.2.3    Bus2=670.1.2.3  LineCode=mtx601 Length=667  units=ft
New Line.670671    Phases=3 Bus1=670.1.2.3    Bus2=671.1.2.3  LineCode=mtx601 Length=1333 units=ft
New Line.671680    Phases=3 Bus1=671.1.2.3    Bus2=680.1.2.3  LineCode=mtx601 Length=1000 units=ft
New Line.632633    Phases=3 Bus1=632.1.2.3    Bus2=633.1.2.3  LineCode=mtx602 Length=500  units=ft
New Line.633634    Phases=3 Bus1=633.1.2.3    Bus2=634.1.2.3  LineCode=mtx602 Length=100  units=ft               ! New line
New Line.632645    Phases=2 Bus1=632.3.2      Bus2=645.3.2    LineCode=mtx603 Length=500  units=ft
New Line.645646    Phases=2 Bus1=645.3.2      Bus2=646.3.2    LineCode=mtx603 Length=300  units=ft
New Line.692675    Phases=3 Bus1=692.1.2.3    Bus2=675.1.2.3  LineCode=mtx606 Length=500  units=ft
New Line.671692    Phases=3 Bus1=671.1.2.3    Bus2=692.1.2.3  LineCode=mtx606 Length=100  units=ft              ! New LIne
New Line.671684    Phases=2 Bus1=671.1.3      Bus2=684.1.3    LineCode=mtx604 Length=300  units=ft
New Line.684611    Phases=1 Bus1=684.3        Bus2=611.3      LineCode=mtx605 Length=300  units=ft
New Line.684652    Phases=1 Bus1=684.1        Bus2=652.1      LineCode=mtx607 Length=800  units=ft

! Generators

New Generator.genpv646     Phases=2  Bus1=646.3.2     kV=4.16	kw=2000   kvar=1000   Conn=Wye   Model=1   ForceON=No
New Vsource.vsgenpv646    angle=30  basekV=4.16  baseMVA=2.2   MVAsc3=2.2  MVAsc1=0.7   Bus1=646.3.2  phases=2  pu=1.0  enabled=y 

New Generator.genwt634     Phases=3  Bus1=634.1.2.3   kV=4.16	kw=2000   pf=1.0   Conn=Wye   Model=1   ForceON=No
!New Vsource.vsgenwt634    angle=30  basekV=4.16  baseMVA=2   MVAsc3=2  MVAsc1=0.667   Bus1=634.1.2.3  phases=3  pu=1.0  enabled=y 

!New Generator.genmt670     Phases=3  Bus1=670.1.2.3   kV=4.16	Kw=500   kvar=100   Conn=Wye   Model=1   ForceON=No
!New Generator.genst692      Phases=3  Bus1=634.1.2.3   kV=4.16	Kw=500   kvar=100   Conn=Wye   Model=1   ForceON=No

Set Voltagebases=[4.16] 
calcv
Solve
BusCoords buscoord.dss

!---------------------------------------------------------------------------------------------------------------------------------------------------
!----------------Show some Results -------------------------------------------------------------------------------------------------------
!---------------------------------------------------------------------------------------------------------------------------------------------------

// Show Voltages LN Nodes
// Show Currents Elem
// Show Powers kVA Elem
// Show Losses
// Show Taps
